* File: PFD_CP.pex.netlist.pex
* Created: Sat Jun 22 00:00:22 2024
* Program "Calibre xRC"
* Version "v2018.2_24.18"
* Nominal Temperature: 27C
* Circuit Temperature: 27C
* 
.subckt PM_PFD_CP%XI0/XI9/NET1 1 2
r0 1 2 5.25
.ends

.subckt PM_PFD_CP%XI0/XI11/XI11/NET1 1 2
r0 1 2 5.25
.ends

.subckt PM_PFD_CP%XI0/XI11/XI12/NET1 1 2
r0 1 2 5.25
.ends

.subckt PM_PFD_CP%XI0/XI10/XI11/NET1 1 2
r0 1 2 5.25
.ends

.subckt PM_PFD_CP%XI0/XI10/XI12/NET1 1 2
r0 1 2 5.25
.ends

.subckt PM_PFD_CP%XI0/XI11/XI9/NET2 1 2
r0 1 2 3.5
.ends

.subckt PM_PFD_CP%XI0/XI11/XI9/NET1 1 2
r0 1 2 3.5
.ends

.subckt PM_PFD_CP%XI0/XI11/XI8/NET2 1 2
r0 1 2 3.5
.ends

.subckt PM_PFD_CP%XI0/XI11/XI8/NET1 1 2
r0 1 2 3.5
.ends

.subckt PM_PFD_CP%XI0/XI11/XI7/NET2 1 2
r0 1 2 3.5
.ends

.subckt PM_PFD_CP%XI0/XI11/XI7/NET1 1 2
r0 1 2 3.5
.ends

.subckt PM_PFD_CP%XI0/XI11/XI10/NET2 1 2
r0 1 2 3.5
.ends

.subckt PM_PFD_CP%XI0/XI11/XI10/NET1 1 2
r0 1 2 3.5
.ends

.subckt PM_PFD_CP%XI0/XI10/XI9/NET2 1 2
r0 1 2 3.5
.ends

.subckt PM_PFD_CP%XI0/XI10/XI9/NET1 1 2
r0 1 2 3.5
.ends

.subckt PM_PFD_CP%XI0/XI10/XI8/NET2 1 2
r0 1 2 3.5
.ends

.subckt PM_PFD_CP%XI0/XI10/XI8/NET1 1 2
r0 1 2 3.5
.ends

.subckt PM_PFD_CP%XI0/XI10/XI7/NET2 1 2
r0 1 2 3.5
.ends

.subckt PM_PFD_CP%XI0/XI10/XI7/NET1 1 2
r0 1 2 3.5
.ends

.subckt PM_PFD_CP%XI0/XI10/XI10/NET2 1 2
r0 1 2 3.5
.ends

.subckt PM_PFD_CP%XI0/XI10/XI10/NET1 1 2
r0 1 2 3.5
.ends

.subckt PM_PFD_CP%XI0/XI11/NET8 1 15 22 39 40 44 51 62
c0 132 0 0.0138676f
c1 131 0 0.0152802f
c2 130 0 0.00950995f
c3 129 0 0.00861111f
c4 128 0 0.0139509f
c5 122 0 0.447605f
c6 120 0 0.120812f
c7 117 0 0.0631422f
c8 114 0 0.00671443f
c9 109 0 0.0210059f
c10 105 0 0.42952f
c11 102 0 0.563007f
c12 101 0 0.0488143f
c13 98 0 0.700116f
c14 95 0 0.593333f
c15 94 0 0.0441178f
c16 89 0 0.0505028f
c17 87 0 0.00629755f
c18 85 0 0.0640978f
c19 82 0 0.0324559f
c20 81 0 0.229521f
c21 79 0 0.0241335f
c22 78 0 0.0164648f
c23 77 0 0.0873053f
c24 76 0 0.32497f
c25 75 0 0.0358153f
c26 69 0 0.296721f
c27 68 0 0.129074f
c28 62 0 0.167392f
c29 58 0 0.0615029f
c30 57 0 0.019986f
c31 56 0 0.0642541f
c32 55 0 0.20427f
c33 51 0 0.224885f
c34 47 0 0.0899852f
c35 43 0 0.137281f
c36 36 0 0.050894f
c37 33 0 0.0271146f
c38 32 0 0.113111f
c39 25 0 0.0905553f
c40 19 0 0.0408444f
c41 18 0 0.106469f
c42 15 0 0.128303f
c43 8 0 0.110954f
c44 7 0 0.0193816f
c45 6 0 0.106091f
c46 5 0 0.0628935f
c47 1 0 0.212301f
r48 127 132 0.0296412
r49 124 132 0.0296412
r50 122 132 0.00770322
r51 122 131 0.934348
r52 119 120 8
r53 117 131 0.03557
r54 117 119 0.028
r55 111 112 8
r56 109 114 0.035285
r57 109 111 0.02772
r58 106 130 0.0286055
r59 105 130 0.00858509
r60 105 129 1.20217
r61 101 102 8
r62 99 129 0.03557
r63 99 101 0.02772
r64 98 128 1.93717
r65 95 133 1.08706
r66 94 95 8
r67 92 128 0.03538
r68 92 94 0.02772
r69 89 90 8
r70 87 98 0.035285
r71 87 89 0.02828
r72 85 133 0.0306509
r73 84 85 8
r74 82 130 0.0286055
r75 82 84 0.03052
r76 81 127 0.681739
r77 80 102 1.57066
r78 79 120 0.351
r79 79 80 0.0363174
r80 77 112 0.0580632
r81 77 78 0.2301
r82 76 78 0.0363174
r83 75 90 0.0566537
r84 75 76 1.0842
r85 69 106 0.841522
r86 68 69 13.2552
r87 60 62 49.5
r88 59 68 6.2413
r89 58 64 5.02856
r90 58 59 9.5
r91 56 60 5.02856
r92 56 57 9.5
r93 55 68 8.0771
r94 54 57 5.02856
r95 54 55 68.25
r96 51 64 62.25
r97 47 124 0.227957
r98 46 47 16.3327
r99 44 46 2.55
r100 42 43 16.3327
r101 40 42 3.825
r102 39 42 3.825
r103 36 81 0.00411102
r104 35 43 0.297043
r105 34 36 0.112609
r106 34 35 0.00411102
r107 32 34 0.035
r108 32 33 0.35
r109 29 33 0.039111
r110 25 29 0.296739
r111 24 25 16.3327
r112 22 24 3.825
r113 19 114 0.14913
r114 18 20 3.87525
r115 18 19 13.2552
r116 13 15 35
r117 9 20 4.98828
r118 8 10 5.02856
r119 8 9 40.5
r120 6 13 5.02856
r121 6 7 41
r122 5 18 8.13342
r123 4 7 5.02856
r124 4 5 28
r125 1 10 66.75
.ends

.subckt PM_PFD_CP%XI0/XI11/NET1 4 10 21 35 44 50 62 79 80 84
c0 146 0 0.0678213f
c1 144 0 0.00937314f
c2 143 0 0.00937313f
c3 142 0 0.00531048f
c4 141 0 0.0151684f
c5 139 0 0.698595f
c6 138 0 0.0390162f
c7 133 0 0.0118765f
c8 132 0 0.00477379f
c9 129 0 0.0218839f
c10 128 0 0.632212f
c11 125 0 0.020744f
c12 124 0 0.0931289f
c13 120 0 0.0180628f
c14 116 0 0.0840483f
c15 109 0 0.41782f
c16 106 0 0.0527777f
c17 105 0 0.0518821f
c18 102 0 0.0699022f
c19 101 0 0.0955515f
c20 99 0 0.151586f
c21 97 0 0.0480017f
c22 96 0 0.377642f
c23 87 0 0.131152f
c24 83 0 0.124592f
c25 76 0 0.0466372f
c26 73 0 0.0311863f
c27 72 0 0.113111f
c28 65 0 0.0954195f
c29 59 0 0.0600982f
c30 54 0 0.27072f
c31 53 0 0.144399f
c32 50 0 0.203636f
c33 47 0 0.159403f
c34 44 0 0.183998f
c35 39 0 0.087546f
c36 38 0 0.106467f
c37 35 0 0.128323f
c38 28 0 0.116181f
c39 27 0 0.0193816f
c40 26 0 0.112171f
c41 25 0 0.0628935f
c42 21 0 0.211271f
c43 19 0 0.0475027f
c44 13 0 0.114878f
c45 10 0 0.1439f
c46 7 0 0.0771446f
c47 4 0 0.183925f
r48 138 139 8
r49 132 146 0.06385
r50 131 133 0.039111
r51 131 132 0.0380435
r52 130 144 0.0296412
r53 129 146 0.0069994
r54 129 130 0.0882609
r55 127 144 0.00770322
r56 127 128 2.23391
r57 126 143 0.0296412
r58 125 144 0.0296412
r59 125 126 0.0836957
r60 124 143 0.00770322
r61 124 142 0.518913
r62 120 121 8
r63 118 142 0.03557
r64 118 120 0.02772
r65 117 141 0.00770322
r66 116 143 0.0296412
r67 116 117 0.334783
r68 115 141 0.0296412
r69 112 141 0.0296412
r70 109 128 0.039111
r71 105 106 0.039111
r72 104 105 0.199348
r73 103 138 0.0069994
r74 102 104 0.039111
r75 102 103 0.152174
r76 101 115 0.372826
r77 100 139 1.60784
r78 99 121 0.0571595
r79 98 99 0.3614
r80 97 100 0.0363174
r81 96 98 0.0363174
r82 96 97 1.2129
r83 87 112 0.53687
r84 86 87 16.3327
r85 84 86 2.55
r86 82 83 16.3327
r87 80 82 3.825
r88 79 82 3.825
r89 76 101 0.00411102
r90 75 83 0.297043
r91 74 76 0.112609
r92 74 75 0.00411102
r93 72 74 0.035
r94 72 73 0.35
r95 69 73 0.039111
r96 65 69 0.296739
r97 64 65 16.3327
r98 62 64 3.825
r99 57 59 16
r100 54 106 0.654348
r101 53 56 8.30751
r102 53 55 8.33855
r103 53 54 13.2552
r104 48 59 0.528559
r105 48 50 67.5
r106 47 57 0.528559
r107 47 56 64.5
r108 44 55 56.75
r109 39 133 0.354565
r110 38 40 3.87525
r111 38 39 13.2552
r112 33 35 35
r113 29 40 4.98828
r114 28 30 5.02856
r115 28 29 40.5
r116 26 33 5.02856
r117 26 27 41
r118 25 38 8.13342
r119 24 27 5.02856
r120 24 25 28
r121 21 30 66.75
r122 17 19 7.5
r123 14 109 1.04087
r124 13 16 8.33761
r125 13 15 8.36812
r126 13 14 13.2552
r127 8 19 0.528559
r128 8 10 43.25
r129 7 17 0.528559
r130 7 16 30.25
r131 4 15 59.75
.ends

.subckt PM_PFD_CP%XI0/XI11/NET10 4 10 22 39 40 44 60 64
c0 129 0 0.0536783f
c1 128 0 0.0416576f
c2 127 0 0.105443f
c3 126 0 0.121754f
c4 125 0 0.61405f
c5 124 0 0.00937313f
c6 123 0 0.0172062f
c7 120 0 0.0165093f
c8 117 0 0.328804f
c9 114 0 0.0620177f
c10 111 0 0.0404567f
c11 109 0 0.00719178f
c12 104 0 0.0361726f
c13 102 0 0.00876627f
c14 99 0 0.100641f
c15 98 0 0.00581461f
c16 96 0 0.389345f
c17 95 0 0.0203605f
c18 91 0 0.0922275f
c19 84 0 0.0327265f
c20 83 0 0.0174766f
c21 82 0 0.639012f
c22 81 0 0.248704f
c23 79 0 0.0951698f
c24 73 0 0.0856893f
c25 69 0 0.109154f
c26 67 0 0.151979f
c27 64 0 0.166567f
c28 60 0 0.193263f
c29 57 0 0.0395957f
c30 56 0 0.0525219f
c31 55 0 0.17312f
c32 47 0 0.147027f
c33 43 0 0.132358f
c34 36 0 0.0497919f
c35 33 0 0.0268791f
c36 32 0 0.113111f
c37 25 0 0.0906084f
c38 19 0 0.060102f
c39 14 0 0.600799f
c40 13 0 0.148356f
c41 10 0 0.202968f
c42 7 0 0.159403f
c43 4 0 0.193557f
r44 127 128 0.0320833
r45 120 127 0.222174
r46 116 117 8
r47 114 120 0.035285
r48 114 116 0.028
r49 112 117 0.3393
r50 111 112 8
r51 109 126 0.03557
r52 109 111 0.028
r53 108 124 0.0296412
r54 108 126 0.385
r55 105 129 0.0566537
r56 104 105 8
r57 102 125 0.03557
r58 102 104 0.02828
r59 100 125 2.05435
r60 99 124 0.00770322
r61 98 99 0.474783
r62 96 129 0.75166
r63 95 96 8
r64 93 98 0.035285
r65 93 95 0.02772
r66 92 123 0.00770322
r67 91 124 0.0296412
r68 91 92 0.366739
r69 90 123 0.0296412
r70 87 123 0.0296412
r71 82 100 0.039111
r72 82 83 1.59478
r73 81 84 0.039111
r74 80 83 0.039111
r75 80 81 0.812609
r76 79 90 0.337826
r77 71 73 12
r78 68 128 0.0258696
r79 67 70 8.20899
r80 67 69 8.24201
r81 67 68 13.2552
r82 62 64 43
r83 58 73 0.528559
r84 58 60 45.75
r85 56 62 5.02856
r86 56 57 11
r87 55 57 5.02856
r88 55 70 57.75
r89 52 71 0.528559
r90 52 69 33.25
r91 47 87 0.57187
r92 46 47 16.3327
r93 44 46 2.55
r94 42 43 16.3327
r95 40 42 3.825
r96 39 42 3.825
r97 36 79 0.00411102
r98 35 43 0.297043
r99 34 36 0.112609
r100 34 35 0.00411102
r101 32 34 0.035
r102 32 33 0.35
r103 29 33 0.039111
r104 25 29 0.296739
r105 24 25 16.3327
r106 22 24 3.825
r107 17 19 16
r108 14 84 1.00891
r109 13 16 8.30751
r110 13 15 8.33855
r111 13 14 13.2552
r112 8 19 0.528559
r113 8 10 67.5
r114 7 17 0.528559
r115 7 16 64.5
r116 4 15 56.75
.ends

.subckt PM_PFD_CP%XI0/XI11/NET2 2 12 17 27 33
c0 92 0 0.00938721f
c1 90 0 0.0191886f
c2 89 0 0.0103961f
c3 88 0 0.344407f
c4 87 0 0.23271f
c5 83 0 0.0221968f
c6 82 0 0.0692705f
c7 77 0 0.373738f
c8 68 0 0.0203815f
c9 64 0 0.23747f
c10 63 0 0.0260999f
c11 61 0 0.00800733f
c12 60 0 0.131388f
c13 57 0 0.00720733f
c14 56 0 0.0171114f
c15 51 0 0.0222052f
c16 50 0 0.416886f
c17 42 0 0.0624753f
c18 37 0 0.283327f
c19 36 0 0.144434f
c20 33 0 0.203923f
c21 30 0 0.159306f
c22 27 0 0.184467f
c23 20 0 0.194832f
c24 15 0 0.0938964f
c25 5 0 0.0946693f
r26 87 92 0.762391
r27 82 83 8
r28 80 92 0.03557
r29 80 82 0.02772
r30 78 90 0.0296412
r31 77 87 0.039111
r32 77 78 1.04696
r33 74 90 0.00770322
r34 71 89 0.0296412
r35 66 68 0.039111
r36 66 88 0.601087
r37 63 64 8
r38 61 88 0.03557
r39 61 63 0.02828
r40 60 90 0.0296412
r41 59 89 0.00770322
r42 59 60 0.346957
r43 58 89 0.0296412
r44 57 83 0.03016
r45 56 57 0.0280392
r46 54 64 0.70174
r47 52 56 0.13
r48 51 54 0.0363174
r49 50 52 0.0363174
r50 50 51 1.4612
r51 40 42 16
r52 37 68 0.739565
r53 36 39 8.30751
r54 36 38 8.33855
r55 36 37 13.2552
r56 31 42 0.528559
r57 31 33 67.5
r58 30 40 0.528559
r59 30 39 64.5
r60 27 38 56.75
r61 20 58 0.629696
r62 19 20 16.3327
r63 17 19 3.825
r64 15 74 0.309217
r65 14 15 16.3327
r66 12 14 3.825
r67 5 71 0.308913
r68 4 5 16.3327
r69 2 4 3.825
.ends

.subckt PM_PFD_CP%XI0/NET3 4 10 22 39 40 44
c0 81 0 0.0607122f
c1 80 0 0.0289108f
c2 77 0 0.016339f
c3 76 0 0.096315f
c4 73 0 0.398782f
c5 70 0 0.117079f
c6 63 0 0.0515256f
c7 61 0 0.010527f
c8 57 0 0.0821766f
c9 56 0 0.291423f
c10 55 0 0.186356f
c11 47 0 0.165161f
c12 43 0 0.124309f
c13 36 0 0.0465229f
c14 33 0 0.0310004f
c15 32 0 0.109723f
c16 25 0 0.105486f
c17 19 0 0.047478f
c18 13 0 0.114897f
c19 10 0 0.143902f
c20 7 0 0.0770918f
c21 4 0 0.183915f
r22 79 80 8
r23 73 79 0.0358107
r24 72 81 0.00770322
r25 72 73 1.41522
r26 71 77 0.00770322
r27 70 81 0.0296412
r28 70 71 0.465652
r29 69 77 0.0296412
r30 66 77 0.0296412
r31 63 64 8
r32 61 76 0.03557
r33 61 63 0.028
r34 57 69 0.325652
r35 56 64 0.572
r36 55 56 0.0363174
r37 54 80 0.00381737
r38 54 55 0.6968
r39 47 66 0.584044
r40 46 47 16.3327
r41 44 46 2.55
r42 42 43 16.3327
r43 40 42 3.825
r44 39 42 3.825
r45 36 57 0.00411102
r46 35 43 0.297043
r47 34 36 0.112609
r48 34 35 0.00411102
r49 32 34 0.035
r50 32 33 0.35
r51 29 33 0.039111
r52 25 29 0.296739
r53 24 25 16.3327
r54 22 24 3.825
r55 17 19 7.5
r56 14 76 0.272391
r57 13 16 8.33761
r58 13 15 8.36812
r59 13 14 13.2552
r60 8 19 0.528559
r61 8 10 43.25
r62 7 17 0.528559
r63 7 16 30.25
r64 4 15 59.75
.ends

.subckt PM_PFD_CP%XI0/XI10/NET8 1 15 22 39 40 44 51 62
c0 132 0 0.0138676f
c1 131 0 0.0152802f
c2 130 0 0.00950995f
c3 129 0 0.00861111f
c4 128 0 0.0139509f
c5 122 0 0.447605f
c6 120 0 0.120812f
c7 117 0 0.0631422f
c8 114 0 0.00671443f
c9 109 0 0.0210059f
c10 105 0 0.42952f
c11 102 0 0.563007f
c12 101 0 0.0488143f
c13 98 0 0.700116f
c14 95 0 0.593333f
c15 94 0 0.0441178f
c16 89 0 0.0505028f
c17 87 0 0.00629755f
c18 85 0 0.0640978f
c19 82 0 0.0324559f
c20 81 0 0.229521f
c21 79 0 0.0241335f
c22 78 0 0.0164648f
c23 77 0 0.0873053f
c24 76 0 0.32497f
c25 75 0 0.0358153f
c26 69 0 0.296721f
c27 68 0 0.129074f
c28 62 0 0.167392f
c29 58 0 0.0615029f
c30 57 0 0.019986f
c31 56 0 0.0642541f
c32 55 0 0.20427f
c33 51 0 0.224885f
c34 47 0 0.0899852f
c35 43 0 0.137281f
c36 36 0 0.050894f
c37 33 0 0.0271146f
c38 32 0 0.113111f
c39 25 0 0.0905553f
c40 19 0 0.0408444f
c41 18 0 0.106469f
c42 15 0 0.128303f
c43 8 0 0.110954f
c44 7 0 0.0193816f
c45 6 0 0.106091f
c46 5 0 0.0628935f
c47 1 0 0.212301f
r48 127 132 0.0296412
r49 124 132 0.0296412
r50 122 132 0.00770322
r51 122 131 0.934348
r52 119 120 8
r53 117 131 0.03557
r54 117 119 0.028
r55 111 112 8
r56 109 114 0.035285
r57 109 111 0.02772
r58 106 130 0.0286055
r59 105 130 0.00858509
r60 105 129 1.20217
r61 101 102 8
r62 99 129 0.03557
r63 99 101 0.02772
r64 98 128 1.93717
r65 95 133 1.08706
r66 94 95 8
r67 92 128 0.03538
r68 92 94 0.02772
r69 89 90 8
r70 87 98 0.035285
r71 87 89 0.02828
r72 85 133 0.0306509
r73 84 85 8
r74 82 130 0.0286055
r75 82 84 0.03052
r76 81 127 0.681739
r77 80 102 1.57066
r78 79 120 0.351
r79 79 80 0.0363174
r80 77 112 0.0580632
r81 77 78 0.2301
r82 76 78 0.0363174
r83 75 90 0.0566537
r84 75 76 1.0842
r85 69 106 0.841522
r86 68 69 13.2552
r87 60 62 49.5
r88 59 68 6.2413
r89 58 64 5.02856
r90 58 59 9.5
r91 56 60 5.02856
r92 56 57 9.5
r93 55 68 8.0771
r94 54 57 5.02856
r95 54 55 68.25
r96 51 64 62.25
r97 47 124 0.227957
r98 46 47 16.3327
r99 44 46 2.55
r100 42 43 16.3327
r101 40 42 3.825
r102 39 42 3.825
r103 36 81 0.00411102
r104 35 43 0.297043
r105 34 36 0.112609
r106 34 35 0.00411102
r107 32 34 0.035
r108 32 33 0.35
r109 29 33 0.039111
r110 25 29 0.296739
r111 24 25 16.3327
r112 22 24 3.825
r113 19 114 0.14913
r114 18 20 3.87525
r115 18 19 13.2552
r116 13 15 35
r117 9 20 4.98828
r118 8 10 5.02856
r119 8 9 40.5
r120 6 13 5.02856
r121 6 7 41
r122 5 18 8.13342
r123 4 7 5.02856
r124 4 5 28
r125 1 10 66.75
.ends

.subckt PM_PFD_CP%XI0/XI10/NET1 4 10 21 35 44 50 62 79 80 84
c0 146 0 0.0678213f
c1 144 0 0.00937314f
c2 143 0 0.00937313f
c3 142 0 0.00531048f
c4 141 0 0.0151684f
c5 139 0 0.698595f
c6 138 0 0.0390162f
c7 133 0 0.0118765f
c8 132 0 0.00477379f
c9 129 0 0.0218839f
c10 128 0 0.632212f
c11 125 0 0.020744f
c12 124 0 0.0931289f
c13 120 0 0.0180628f
c14 116 0 0.0840483f
c15 109 0 0.41782f
c16 106 0 0.0527777f
c17 105 0 0.0518821f
c18 102 0 0.0699022f
c19 101 0 0.0955515f
c20 99 0 0.151586f
c21 97 0 0.0480017f
c22 96 0 0.377642f
c23 87 0 0.131152f
c24 83 0 0.124592f
c25 76 0 0.0466372f
c26 73 0 0.0311863f
c27 72 0 0.113111f
c28 65 0 0.0954195f
c29 59 0 0.0600982f
c30 54 0 0.27072f
c31 53 0 0.144399f
c32 50 0 0.203636f
c33 47 0 0.159403f
c34 44 0 0.183998f
c35 39 0 0.087546f
c36 38 0 0.106467f
c37 35 0 0.128323f
c38 28 0 0.116181f
c39 27 0 0.0193816f
c40 26 0 0.112171f
c41 25 0 0.0628935f
c42 21 0 0.211397f
c43 19 0 0.0475027f
c44 13 0 0.114878f
c45 10 0 0.1439f
c46 7 0 0.0771446f
c47 4 0 0.183925f
r48 138 139 8
r49 132 146 0.06385
r50 131 133 0.039111
r51 131 132 0.0380435
r52 130 144 0.0296412
r53 129 146 0.0069994
r54 129 130 0.0882609
r55 127 144 0.00770322
r56 127 128 2.23391
r57 126 143 0.0296412
r58 125 144 0.0296412
r59 125 126 0.0836957
r60 124 143 0.00770322
r61 124 142 0.518913
r62 120 121 8
r63 118 142 0.03557
r64 118 120 0.02772
r65 117 141 0.00770322
r66 116 143 0.0296412
r67 116 117 0.334783
r68 115 141 0.0296412
r69 112 141 0.0296412
r70 109 128 0.039111
r71 105 106 0.039111
r72 104 105 0.199348
r73 103 138 0.0069994
r74 102 104 0.039111
r75 102 103 0.152174
r76 101 115 0.372826
r77 100 139 1.60784
r78 99 121 0.0571595
r79 98 99 0.3614
r80 97 100 0.0363174
r81 96 98 0.0363174
r82 96 97 1.2129
r83 87 112 0.53687
r84 86 87 16.3327
r85 84 86 2.55
r86 82 83 16.3327
r87 80 82 3.825
r88 79 82 3.825
r89 76 101 0.00411102
r90 75 83 0.297043
r91 74 76 0.112609
r92 74 75 0.00411102
r93 72 74 0.035
r94 72 73 0.35
r95 69 73 0.039111
r96 65 69 0.296739
r97 64 65 16.3327
r98 62 64 3.825
r99 57 59 16
r100 54 106 0.654348
r101 53 56 8.30751
r102 53 55 8.33855
r103 53 54 13.2552
r104 48 59 0.528559
r105 48 50 67.5
r106 47 57 0.528559
r107 47 56 64.5
r108 44 55 56.75
r109 39 133 0.354565
r110 38 40 3.87525
r111 38 39 13.2552
r112 33 35 35
r113 29 40 4.98828
r114 28 30 5.02856
r115 28 29 40.5
r116 26 33 5.02856
r117 26 27 41
r118 25 38 8.13342
r119 24 27 5.02856
r120 24 25 28
r121 21 30 66.75
r122 17 19 7.5
r123 14 109 1.04087
r124 13 16 8.33761
r125 13 15 8.36812
r126 13 14 13.2552
r127 8 19 0.528559
r128 8 10 43.25
r129 7 17 0.528559
r130 7 16 30.25
r131 4 15 59.75
.ends

.subckt PM_PFD_CP%XI0/XI10/NET10 4 10 22 39 40 44 60 64
c0 129 0 0.0536783f
c1 128 0 0.0416576f
c2 127 0 0.105443f
c3 126 0 0.121754f
c4 125 0 0.61405f
c5 124 0 0.00937313f
c6 123 0 0.0172062f
c7 120 0 0.0165093f
c8 117 0 0.328804f
c9 114 0 0.0620177f
c10 111 0 0.0404567f
c11 109 0 0.00719178f
c12 104 0 0.0361726f
c13 102 0 0.00876627f
c14 99 0 0.100641f
c15 98 0 0.00581461f
c16 96 0 0.389345f
c17 95 0 0.0203605f
c18 91 0 0.0922275f
c19 84 0 0.0327265f
c20 83 0 0.0234261f
c21 82 0 0.715222f
c22 81 0 0.248704f
c23 79 0 0.0951698f
c24 73 0 0.0856893f
c25 69 0 0.109154f
c26 67 0 0.151979f
c27 64 0 0.166567f
c28 60 0 0.193263f
c29 57 0 0.0395957f
c30 56 0 0.0525219f
c31 55 0 0.17312f
c32 47 0 0.147027f
c33 43 0 0.132358f
c34 36 0 0.0497919f
c35 33 0 0.0268791f
c36 32 0 0.113111f
c37 25 0 0.0906084f
c38 19 0 0.060102f
c39 14 0 0.600799f
c40 13 0 0.148356f
c41 10 0 0.202968f
c42 7 0 0.159403f
c43 4 0 0.193557f
r44 127 128 0.0320833
r45 120 127 0.222174
r46 116 117 8
r47 114 120 0.035285
r48 114 116 0.028
r49 112 117 0.3393
r50 111 112 8
r51 109 126 0.03557
r52 109 111 0.028
r53 108 124 0.0296412
r54 108 126 0.385
r55 105 129 0.0566537
r56 104 105 8
r57 102 125 0.03557
r58 102 104 0.02828
r59 100 125 2.05435
r60 99 124 0.00770322
r61 98 99 0.474783
r62 96 129 0.75166
r63 95 96 8
r64 93 98 0.035285
r65 93 95 0.02772
r66 92 123 0.00770322
r67 91 124 0.0296412
r68 91 92 0.366739
r69 90 123 0.0296412
r70 87 123 0.0296412
r71 82 100 0.039111
r72 82 83 1.59478
r73 81 84 0.039111
r74 80 83 0.039111
r75 80 81 0.812609
r76 79 90 0.337826
r77 71 73 12
r78 68 128 0.0258696
r79 67 70 8.20899
r80 67 69 8.24201
r81 67 68 13.2552
r82 62 64 43
r83 58 73 0.528559
r84 58 60 45.75
r85 56 62 5.02856
r86 56 57 11
r87 55 57 5.02856
r88 55 70 57.75
r89 52 71 0.528559
r90 52 69 33.25
r91 47 87 0.57187
r92 46 47 16.3327
r93 44 46 2.55
r94 42 43 16.3327
r95 40 42 3.825
r96 39 42 3.825
r97 36 79 0.00411102
r98 35 43 0.297043
r99 34 36 0.112609
r100 34 35 0.00411102
r101 32 34 0.035
r102 32 33 0.35
r103 29 33 0.039111
r104 25 29 0.296739
r105 24 25 16.3327
r106 22 24 3.825
r107 17 19 16
r108 14 84 1.00891
r109 13 16 8.30751
r110 13 15 8.33855
r111 13 14 13.2552
r112 8 19 0.528559
r113 8 10 67.5
r114 7 17 0.528559
r115 7 16 64.5
r116 4 15 56.75
.ends

.subckt PM_PFD_CP%XI0/XI10/NET2 2 12 17 27 33
c0 92 0 0.00938721f
c1 90 0 0.0191886f
c2 89 0 0.0103961f
c3 88 0 0.344407f
c4 87 0 0.23271f
c5 83 0 0.0221968f
c6 82 0 0.0692705f
c7 77 0 0.373738f
c8 68 0 0.0203815f
c9 64 0 0.23747f
c10 63 0 0.0260999f
c11 61 0 0.00800733f
c12 60 0 0.131388f
c13 57 0 0.00720733f
c14 56 0 0.0171114f
c15 51 0 0.0222052f
c16 50 0 0.416886f
c17 42 0 0.0624753f
c18 37 0 0.283327f
c19 36 0 0.144434f
c20 33 0 0.203923f
c21 30 0 0.159306f
c22 27 0 0.184467f
c23 20 0 0.194832f
c24 15 0 0.0938964f
c25 5 0 0.0946693f
r26 87 92 0.762391
r27 82 83 8
r28 80 92 0.03557
r29 80 82 0.02772
r30 78 90 0.0296412
r31 77 87 0.039111
r32 77 78 1.04696
r33 74 90 0.00770322
r34 71 89 0.0296412
r35 66 68 0.039111
r36 66 88 0.601087
r37 63 64 8
r38 61 88 0.03557
r39 61 63 0.02828
r40 60 90 0.0296412
r41 59 89 0.00770322
r42 59 60 0.346957
r43 58 89 0.0296412
r44 57 83 0.03016
r45 56 57 0.0280392
r46 54 64 0.70174
r47 52 56 0.13
r48 51 54 0.0363174
r49 50 52 0.0363174
r50 50 51 1.4612
r51 40 42 16
r52 37 68 0.739565
r53 36 39 8.30751
r54 36 38 8.33855
r55 36 37 13.2552
r56 31 42 0.528559
r57 31 33 67.5
r58 30 40 0.528559
r59 30 39 64.5
r60 27 38 56.75
r61 20 58 0.629696
r62 19 20 16.3327
r63 17 19 3.825
r64 15 74 0.309217
r65 14 15 16.3327
r66 12 14 3.825
r67 5 71 0.308913
r68 4 5 16.3327
r69 2 4 3.825
.ends

.subckt PM_PFD_CP%XI0/NET2 4 10 22 39 40 44
c0 81 0 0.0668532f
c1 80 0 0.036461f
c2 77 0 0.016339f
c3 76 0 0.0969087f
c4 73 0 0.429319f
c5 70 0 0.117079f
c6 63 0 0.0523139f
c7 61 0 0.0108311f
c8 57 0 0.0821786f
c9 56 0 0.363878f
c10 55 0 0.261762f
c11 47 0 0.165165f
c12 43 0 0.12431f
c13 36 0 0.0465233f
c14 33 0 0.0310004f
c15 32 0 0.109723f
c16 25 0 0.105486f
c17 19 0 0.047478f
c18 13 0 0.114897f
c19 10 0 0.143902f
c20 7 0 0.0773434f
c21 4 0 0.183915f
r22 79 80 8
r23 73 79 0.0358107
r24 72 81 0.00770322
r25 72 73 1.41522
r26 71 77 0.00770322
r27 70 81 0.0296412
r28 70 71 0.465652
r29 69 77 0.0296412
r30 66 77 0.0296412
r31 63 64 8
r32 61 76 0.03557
r33 61 63 0.028
r34 57 69 0.325652
r35 56 64 0.572
r36 55 56 0.0363174
r37 54 80 0.00381737
r38 54 55 0.6968
r39 47 66 0.584044
r40 46 47 16.3327
r41 44 46 2.55
r42 42 43 16.3327
r43 40 42 3.825
r44 39 42 3.825
r45 36 57 0.00411102
r46 35 43 0.297043
r47 34 36 0.112609
r48 34 35 0.00411102
r49 32 34 0.035
r50 32 33 0.35
r51 29 33 0.039111
r52 25 29 0.296739
r53 24 25 16.3327
r54 22 24 3.825
r55 17 19 7.5
r56 14 76 0.272391
r57 13 16 8.33761
r58 13 15 8.36812
r59 13 14 13.2552
r60 8 19 0.528559
r61 8 10 43.25
r62 7 17 0.528559
r63 7 16 30.25
r64 4 15 59.75
.ends

.subckt PM_PFD_CP%VOUT 2 7 35 109
c0 168 0 1.31861f
c1 71 0 5.02074f
c2 54 0 3.87164f
c3 52 0 0.0160345f
c4 50 0 0.0143936f
c5 49 0 0.0145145f
c6 43 0 0.021571f
c7 41 0 0.0170404f
c8 39 0 0.460093f
c9 35 0 0.294395f
c10 30 0 0.0209905f
c11 28 0 0.0271855f
c12 26 0 0.00943817f
c13 25 0 0.0274843f
c14 24 0 0.109313f
c15 10 0 0.0804384f
r16 162 163 0.872727
r17 160 163 0.00687143
r18 159 162 2.86
r19 159 160 0.872727
r20 157 160 0.00343571
r21 156 159 1.43
r22 156 157 0.872727
r23 154 157 0.00687143
r24 153 156 2.86
r25 153 154 0.834783
r26 151 154 0.00343571
r27 150 153 1.43
r28 150 151 0.834783
r29 148 151 0.00687143
r30 147 150 2.86
r31 147 148 0.834783
r32 145 148 0.00343571
r33 144 147 1.43
r34 144 145 0.834783
r35 142 145 0.00687143
r36 141 144 2.86
r37 141 142 0.834783
r38 139 142 0.00343571
r39 138 141 1.43
r40 138 139 0.834783
r41 136 139 0.00687143
r42 135 138 2.86
r43 135 136 0.834783
r44 133 136 0.00687143
r45 132 135 2.86
r46 132 133 0.834783
r47 130 133 0.00343571
r48 129 132 1.43
r49 129 130 0.834783
r50 127 130 0.00687143
r51 126 129 2.86
r52 126 127 0.834783
r53 124 127 0.00343571
r54 123 126 1.43
r55 123 124 0.834783
r56 121 124 0.00343571
r57 120 123 1.43
r58 120 121 0.834783
r59 118 121 0.00687143
r60 117 120 2.86
r61 117 118 0.834783
r62 115 118 0.00687143
r63 114 117 2.86
r64 114 115 0.834783
r65 112 115 0.00343571
r66 111 114 1.43
r67 111 112 0.834783
r68 109 111 1.43275
r69 107 112 0.00687143
r70 106 109 1.42725
r71 106 107 0.834783
r72 104 107 0.00343571
r73 103 106 1.43
r74 103 104 0.834783
r75 101 104 0.00687143
r76 100 103 2.86
r77 100 101 0.834783
r78 98 101 0.00343571
r79 97 100 1.43
r80 97 98 0.834783
r81 95 98 0.00687143
r82 94 97 2.86
r83 94 95 0.834783
r84 92 95 0.00343571
r85 91 94 1.43
r86 91 92 0.834783
r87 89 92 0.00687143
r88 88 91 2.86
r89 88 89 0.834783
r90 86 89 0.00687143
r91 85 88 2.86
r92 85 86 0.834783
r93 83 86 0.00343571
r94 82 85 1.43
r95 82 83 0.834783
r96 80 83 0.00687143
r97 79 82 2.86
r98 79 80 0.834783
r99 77 80 0.00343571
r100 76 79 1.43
r101 76 77 0.834783
r102 74 77 0.00343571
r103 73 76 1.43
r104 73 74 0.834783
r105 71 74 0.00687143
r106 71 168 0.00357446
r107 70 73 2.86
r108 70 71 0.834783
r109 68 168 0.00327702
r110 67 70 2.86
r111 67 68 0.834783
r112 64 67 1.43
r113 64 65 0.834783
r114 62 65 0.00646397
r115 61 64 2.86
r116 61 62 0.834783
r117 59 62 0.00323198
r118 58 61 1.43
r119 58 59 0.834783
r120 55 59 0.00646397
r121 54 58 2.86
r122 54 55 0.834783
r123 50 207 8
r124 49 52 8
r125 49 50 8
r126 44 68 0.00155384
r127 44 65 0.00167815
r128 43 44 8
r129 41 207 0.0452398
r130 41 43 0.1287
r131 38 163 0.00230589
r132 38 39 0.0291705
r133 35 39 0.113837
r134 28 30 0.06357
r135 28 52 8
r136 24 25 0.0233333
r137 23 26 0.00770322
r138 23 30 0.0821739
r139 20 26 0.0296412
r140 20 24 0.407826
r141 17 26 0.0296412
r142 10 17 0.263261
r143 9 10 16.3327
r144 7 9 9.031
r145 5 25 0.0258696
r146 4 5 16.3327
r147 2 4 9.031
.ends

.subckt PM_PFD_CP%VSS 2 13 30 47 63 79 95 111 266 283 299 315 331 347 491 497
+ 500 602 681
c0 793 0 0.0165349f
c1 786 0 0.00113492f
c2 776 0 0.0954906f
c3 770 0 6.03079e-19
c4 752 0 0.00306762f
c5 747 0 0.0069534f
c6 744 0 0.0179336f
c7 743 0 0.0217955f
c8 625 0 3.10318f
c9 624 0 9.65376f
c10 621 0 0.0182196f
c11 620 0 0.302024f
c12 617 0 0.00937406f
c13 616 0 0.00937313f
c14 615 0 0.377575f
c15 610 0 0.00629354f
c16 606 0 0.0203608f
c17 604 0 0.00597812f
c18 602 0 0.066916f
c19 600 0 0.0219997f
c20 598 0 0.0179909f
c21 594 0 0.00918596f
c22 592 0 0.121574f
c23 590 0 1.85577f
c24 588 0 0.0608096f
c25 583 0 0.0204864f
c26 582 0 0.0793623f
c27 581 0 0.0168566f
c28 580 0 0.062342f
c29 579 0 0.483442f
c30 577 0 1.49984f
c31 574 0 0.323716f
c32 573 0 0.0203814f
c33 565 0 0.00834503f
c34 562 0 0.00995572f
c35 560 0 0.010285f
c36 559 0 0.00865916f
c37 558 0 0.00863856f
c38 556 0 0.619438f
c39 554 0 0.504013f
c40 552 0 0.589691f
c41 551 0 0.184601f
c42 542 0 0.0164646f
c43 541 0 0.561066f
c44 540 0 0.0164646f
c45 539 0 0.352139f
c46 538 0 2.27557f
c47 532 0 0.633818f
c48 531 0 0.6372f
c49 503 0 0.0495284f
c50 497 0 0.109599f
c51 494 0 0.0629185f
c52 474 0 0.0406344f
c53 473 0 0.0253846f
c54 470 0 0.0104572f
c55 468 0 0.185604f
c56 466 0 0.0664683f
c57 460 0 0.00864479f
c58 459 0 0.346038f
c59 454 0 0.0369657f
c60 452 0 0.0150388f
c61 451 0 0.050727f
c62 444 0 0.175419f
c63 442 0 0.106661f
c64 439 0 0.0241002f
c65 436 0 0.0135989f
c66 434 0 0.032834f
c67 432 0 0.0490572f
c68 419 0 0.00701246f
c69 418 0 0.0487604f
c70 416 0 0.0570057f
c71 415 0 0.0737132f
c72 414 0 0.102718f
c73 412 0 0.450462f
c74 409 0 0.0252549f
c75 407 0 0.412912f
c76 404 0 0.0290157f
c77 402 0 0.00744997f
c78 401 0 0.451865f
c79 399 0 0.0896408f
c80 396 0 0.0237264f
c81 395 0 0.0319821f
c82 394 0 0.00865702f
c83 393 0 0.144152f
c84 392 0 0.0164834f
c85 391 0 0.00865736f
c86 389 0 0.00865736f
c87 382 0 1.47682f
c88 380 0 0.54929f
c89 378 0 0.641913f
c90 350 0 0.0698442f
c91 340 0 0.0051091f
c92 334 0 0.0738547f
c93 324 0 0.00480848f
c94 318 0 0.0727854f
c95 308 0 0.00938155f
c96 302 0 0.0889923f
c97 292 0 0.0242927f
c98 286 0 0.0847914f
c99 269 0 0.0645034f
c100 238 0 0.0406344f
c101 237 0 0.0253846f
c102 234 0 0.0104572f
c103 232 0 0.185604f
c104 230 0 0.0664683f
c105 224 0 0.00864479f
c106 223 0 0.345736f
c107 218 0 0.0369657f
c108 216 0 0.0150388f
c109 215 0 0.050727f
c110 208 0 0.175419f
c111 206 0 0.106661f
c112 203 0 0.0241002f
c113 200 0 0.0135989f
c114 198 0 0.032834f
c115 196 0 0.0490572f
c116 183 0 0.00701246f
c117 182 0 0.0487604f
c118 180 0 0.0570057f
c119 179 0 0.0737132f
c120 178 0 0.102718f
c121 176 0 0.450462f
c122 173 0 0.0252549f
c123 171 0 0.412912f
c124 168 0 0.0290157f
c125 166 0 0.00744997f
c126 165 0 0.451865f
c127 163 0 0.0896408f
c128 160 0 0.0237264f
c129 159 0 0.0319821f
c130 158 0 0.00863856f
c131 157 0 0.144106f
c132 156 0 0.0164834f
c133 155 0 0.00865736f
c134 153 0 0.00865736f
c135 149 0 0.388281f
c136 146 0 1.47682f
c137 144 0 0.54929f
c138 142 0 0.641913f
c139 114 0 0.0698442f
c140 104 0 0.0051091f
c141 98 0 0.0738547f
c142 88 0 0.00480848f
c143 82 0 0.0727854f
c144 72 0 0.00938155f
c145 66 0 0.0889923f
c146 56 0 0.0242927f
c147 50 0 0.0847914f
c148 33 0 0.0645034f
c149 16 0 0.057505f
c150 11 0 0.00188349f
r151 793 795 0.0219566
r152 777 795 0.141522
r153 776 779 8.05107
r154 776 777 13.2552
r155 770 786 0.00770322
r156 769 770 16.3327
r157 764 786 0.111087
r158 763 764 16.3327
r159 758 793 0.0369744
r160 752 789 0.00152174
r161 747 841 8
r162 743 747 8
r163 743 744 8
r164 737 738 8
r165 735 738 0.00534444
r166 734 737 0.00393023
r167 734 735 2.66667
r168 732 735 0.00534444
r169 731 734 0.00393023
r170 731 732 2.66667
r171 729 732 0.0106889
r172 728 731 0.00786046
r173 728 729 2.66667
r174 726 729 0.00534444
r175 725 728 0.00393023
r176 725 726 2.66667
r177 723 726 0.0106889
r178 722 725 0.00786046
r179 722 723 2.66667
r180 720 723 0.00534444
r181 719 722 0.00393023
r182 719 720 2.66667
r183 717 720 0.0106889
r184 716 719 0.00786046
r185 716 717 2.66667
r186 714 717 0.00534444
r187 713 716 0.00393023
r188 713 714 2.66667
r189 711 714 0.0106889
r190 710 713 0.00786046
r191 710 711 2.66667
r192 708 711 0.00534444
r193 707 710 0.00393023
r194 707 708 2.66667
r195 705 708 0.0106889
r196 704 707 0.00786046
r197 704 705 2.66667
r198 702 705 0.00534444
r199 701 704 0.00393023
r200 701 702 2.66667
r201 699 702 0.0106889
r202 698 701 0.00786046
r203 698 699 2.66667
r204 696 699 0.00534444
r205 695 698 0.00393023
r206 695 696 2.66667
r207 693 696 0.0106889
r208 692 695 0.00786046
r209 692 693 2.66667
r210 690 693 0.00534444
r211 689 692 0.00393023
r212 689 690 2.66667
r213 687 690 0.0106889
r214 686 689 0.00786046
r215 686 687 2.66667
r216 684 687 0.00534444
r217 683 686 0.00393023
r218 683 684 2.66667
r219 681 683 0.00590291
r220 679 684 0.0106889
r221 678 681 0.00195756
r222 678 679 2.66667
r223 676 679 0.00534444
r224 675 678 0.00393023
r225 675 676 2.66667
r226 673 676 0.0106889
r227 672 675 0.00786046
r228 672 673 2.66667
r229 670 673 0.00534444
r230 669 672 0.00393023
r231 669 670 2.66667
r232 667 670 0.0106889
r233 666 669 0.00786046
r234 666 667 2.66667
r235 664 667 0.00534444
r236 663 666 0.00393023
r237 663 664 2.66667
r238 661 664 0.0106889
r239 660 663 0.00786046
r240 660 661 2.66667
r241 658 661 0.00534444
r242 657 660 0.00393023
r243 657 658 2.66667
r244 655 658 0.0106889
r245 654 657 0.00786046
r246 654 655 2.66667
r247 652 655 0.00534444
r248 651 654 0.00393023
r249 651 652 2.66667
r250 649 652 0.0106889
r251 648 651 0.00786046
r252 648 649 2.66667
r253 646 649 0.00534444
r254 645 648 0.00393023
r255 645 646 2.66667
r256 643 646 0.0106889
r257 642 645 0.00786046
r258 642 643 2.66667
r259 640 643 0.00534444
r260 639 642 0.00393023
r261 639 640 2.66667
r262 637 640 0.0106889
r263 636 639 0.00786046
r264 636 637 2.66667
r265 634 637 0.00534444
r266 633 636 0.00393023
r267 633 634 2.66667
r268 631 634 0.0106889
r269 630 633 0.00786046
r270 630 631 2.66667
r271 628 631 0.00534444
r272 627 630 0.00393023